74281453
  -OEChem-05012409352D

 90 93  0     1  0  0  0  0  0999 V2000
   21.4481    2.7159    0.0000 S   0  0  0  0  0  0  0  0  0  0  0  0
    5.3548    3.1176    0.0000 P   0  0  0  0  0  0  0  0  0  0  0  0
    8.4752    1.8778    0.0000 P   0  0  3  0  0  0  0  0  0  0  0  0
   10.1980    2.0558    0.0000 P   0  0  3  0  0  0  0  0  0  0  0  0
    5.9405    0.1133    0.0000 O   0  0  0  0  0  0  0  0  0  0  0  0
    4.6844    2.3756    0.0000 O   0  0  0  0  0  0  0  0  0  0  0  0
    3.4026    0.6177    0.0000 O   0  0  0  0  0  0  0  0  0  0  0  0
    7.6651    1.2914    0.0000 O   0  0  0  0  0  0  0  0  0  0  0  0
   11.1109    1.6475    0.0000 O   0  0  0  0  0  0  0  0  0  0  0  0
    9.2852    2.4642    0.0000 O   0  0  0  0  0  0  0  0  0  0  0  0
    6.0252    3.8596    0.0000 O   0  5  0  0  0  0  0  0  0  0  0  0
    4.6128    3.7880    0.0000 O   0  5  0  0  0  0  0  0  0  0  0  0
    6.0968    2.4472    0.0000 O   0  0  0  0  0  0  0  0  0  0  0  0
   13.8494    0.4226    0.0000 O   0  0  0  0  0  0  0  0  0  0  0  0
    9.0615    1.0678    0.0000 O   0  5  0  0  0  0  0  0  0  0  0  0
    7.8888    2.6878    0.0000 O   0  0  0  0  0  0  0  0  0  0  0  0
   14.4538    2.9984    0.0000 O   0  0  0  0  0  0  0  0  0  0  0  0
   10.6063    2.9687    0.0000 O   0  5  0  0  0  0  0  0  0  0  0  0
    9.7897    1.1430    0.0000 O   0  0  0  0  0  0  0  0  0  0  0  0
   17.8996    3.3545    0.0000 O   0  0  0  0  0  0  0  0  0  0  0  0
   22.4638    1.3129    0.0000 O   0  0  0  0  0  0  0  0  0  0  0  0
    4.6783   -1.1446    0.0000 N   0  0  0  0  0  0  0  0  0  0  0  0
    4.6783   -2.7540    0.0000 N   0  0  0  0  0  0  0  0  0  0  0  0
    2.8660   -0.9493    0.0000 N   0  0  0  0  0  0  0  0  0  0  0  0
    2.0000   -2.4493    0.0000 N   0  0  0  0  0  0  0  0  0  0  0  0
    2.8660   -3.9493    0.0000 N   0  0  0  0  0  0  0  0  0  0  0  0
   15.4695    1.5954    0.0000 N   0  0  0  0  0  0  0  0  0  0  0  0
   18.9152    1.9515    0.0000 N   0  0  0  0  0  0  0  0  0  0  0  0
   23.1727    3.8940    0.0000 N   0  0  0  0  0  0  0  0  0  0  0  0
    4.9917    1.4240    0.0000 C   0  0  1  0  0  0  0  0  0  0  0  0
    4.4026    0.6160    0.0000 C   0  0  2  0  0  0  0  0  0  0  0  0
    5.9422    1.1133    0.0000 C   0  0  1  0  0  0  0  0  0  0  0  0
    4.9889   -0.1940    0.0000 C   0  0  1  0  0  0  0  0  0  0  0  0
    6.7523    1.6997    0.0000 C   0  0  0  0  0  0  0  0  0  0  0  0
    3.7320   -1.4493    0.0000 C   0  0  0  0  0  0  0  0  0  0  0  0
    5.2619   -1.9493    0.0000 C   0  0  0  0  0  0  0  0  0  0  0  0
    3.7320   -2.4493    0.0000 C   0  0  0  0  0  0  0  0  0  0  0  0
   12.8337    1.8256    0.0000 C   0  0  0  0  0  0  0  0  0  0  0  0
   13.7466    1.4173    0.0000 C   0  0  2  0  0  0  0  0  0  0  0  0
   11.9209    2.2339    0.0000 C   0  0  0  0  0  0  0  0  0  0  0  0
    2.8660   -2.9493    0.0000 C   0  0  0  0  0  0  0  0  0  0  0  0
   13.2421    2.7384    0.0000 C   0  0  0  0  0  0  0  0  0  0  0  0
   12.4254    0.9128    0.0000 C   0  0  0  0  0  0  0  0  0  0  0  0
   14.5566    2.0037    0.0000 C   0  0  0  0  0  0  0  0  0  0  0  0
    2.0000   -1.4493    0.0000 C   0  0  0  0  0  0  0  0  0  0  0  0
   16.2795    2.1817    0.0000 C   0  0  0  0  0  0  0  0  0  0  0  0
   17.1923    1.7734    0.0000 C   0  0  0  0  0  0  0  0  0  0  0  0
   18.0024    2.3598    0.0000 C   0  0  0  0  0  0  0  0  0  0  0  0
   19.7252    2.5379    0.0000 C   0  0  0  0  0  0  0  0  0  0  0  0
   20.6381    2.1296    0.0000 C   0  0  0  0  0  0  0  0  0  0  0  0
   22.3610    2.3076    0.0000 C   0  0  0  0  0  0  0  0  0  0  0  0
   23.1710    2.8940    0.0000 C   0  0  0  0  0  0  0  0  0  0  0  0
   24.1215    2.5833    0.0000 C   0  0  0  0  0  0  0  0  0  0  0  0
   24.1243    4.2014    0.0000 C   0  0  0  0  0  0  0  0  0  0  0  0
   24.7107    3.3913    0.0000 C   0  0  0  0  0  0  0  0  0  0  0  0
    5.4309    1.8616    0.0000 H   0  0  0  0  0  0  0  0  0  0  0  0
    4.1220    1.1689    0.0000 H   0  0  0  0  0  0  0  0  0  0  0  0
    6.4942    0.8309    0.0000 H   0  0  0  0  0  0  0  0  0  0  0  0
    5.4266   -0.6332    0.0000 H   0  0  0  0  0  0  0  0  0  0  0  0
    7.0999    2.2131    0.0000 H   0  0  0  0  0  0  0  0  0  0  0  0
    6.3070    2.1312    0.0000 H   0  0  0  0  0  0  0  0  0  0  0  0
    3.0935    1.1552    0.0000 H   0  0  0  0  0  0  0  0  0  0  0  0
    5.8819   -1.9493    0.0000 H   0  0  0  0  0  0  0  0  0  0  0  0
   13.2444    1.0537    0.0000 H   0  0  0  0  0  0  0  0  0  0  0  0
   12.2685    2.7473    0.0000 H   0  0  0  0  0  0  0  0  0  0  0  0
   11.4757    2.6654    0.0000 H   0  0  0  0  0  0  0  0  0  0  0  0
   13.8080    2.4853    0.0000 H   0  0  0  0  0  0  0  0  0  0  0  0
   13.4952    3.3044    0.0000 H   0  0  0  0  0  0  0  0  0  0  0  0
   12.6761    2.9916    0.0000 H   0  0  0  0  0  0  0  0  0  0  0  0
   11.8595    1.1659    0.0000 H   0  0  0  0  0  0  0  0  0  0  0  0
   12.1723    0.3468    0.0000 H   0  0  0  0  0  0  0  0  0  0  0  0
   12.9914    0.6596    0.0000 H   0  0  0  0  0  0  0  0  0  0  0  0
    1.4631   -1.1393    0.0000 H   0  0  0  0  0  0  0  0  0  0  0  0
   14.4154    0.1694    0.0000 H   0  0  0  0  0  0  0  0  0  0  0  0
    2.3291   -4.2593    0.0000 H   0  0  0  0  0  0  0  0  0  0  0  0
    3.4030   -4.2593    0.0000 H   0  0  0  0  0  0  0  0  0  0  0  0
   15.5332    0.9786    0.0000 H   0  0  0  0  0  0  0  0  0  0  0  0
   16.6271    2.6951    0.0000 H   0  0  0  0  0  0  0  0  0  0  0  0
   15.8342    2.6132    0.0000 H   0  0  0  0  0  0  0  0  0  0  0  0
   16.8447    1.2600    0.0000 H   0  0  0  0  0  0  0  0  0  0  0  0
   17.6376    1.3420    0.0000 H   0  0  0  0  0  0  0  0  0  0  0  0
   18.9789    1.3348    0.0000 H   0  0  0  0  0  0  0  0  0  0  0  0
   20.0728    3.0513    0.0000 H   0  0  0  0  0  0  0  0  0  0  0  0
   19.2800    2.9693    0.0000 H   0  0  0  0  0  0  0  0  0  0  0  0
   20.2905    1.6162    0.0000 H   0  0  0  0  0  0  0  0  0  0  0  0
   21.0833    1.6981    0.0000 H   0  0  0  0  0  0  0  0  0  0  0  0
   22.6718    4.2593    0.0000 H   0  0  0  0  0  0  0  0  0  0  0  0
   24.3121    1.9934    0.0000 H   0  0  0  0  0  0  0  0  0  0  0  0
   24.3169    4.7907    0.0000 H   0  0  0  0  0  0  0  0  0  0  0  0
   25.3307    3.3903    0.0000 H   0  0  0  0  0  0  0  0  0  0  0  0
  1 50  1  0  0  0  0
  1 51  1  0  0  0  0
  2  6  1  0  0  0  0
  2 11  1  0  0  0  0
  2 12  1  0  0  0  0
  2 13  2  0  0  0  0
  3  8  1  0  0  0  0
  3 10  1  0  0  0  0
  3 15  1  0  0  0  0
  3 16  2  0  0  0  0
  4  9  1  0  0  0  0
  4 10  1  0  0  0  0
  4 18  1  0  0  0  0
  4 19  2  0  0  0  0
  5 32  1  0  0  0  0
  5 33  1  0  0  0  0
 30  6  1  6  0  0  0
 31  7  1  6  0  0  0
  7 62  1  0  0  0  0
  8 34  1  0  0  0  0
  9 40  1  0  0  0  0
 39 14  1  6  0  0  0
 14 74  1  0  0  0  0
 17 44  2  0  0  0  0
 20 48  2  0  0  0  0
 21 51  2  0  0  0  0
 33 22  1  1  0  0  0
 22 35  1  0  0  0  0
 22 36  1  0  0  0  0
 23 36  2  0  0  0  0
 23 37  1  0  0  0  0
 24 35  2  0  0  0  0
 24 45  1  0  0  0  0
 25 41  1  0  0  0  0
 25 45  2  0  0  0  0
 26 41  1  0  0  0  0
 26 75  1  0  0  0  0
 26 76  1  0  0  0  0
 27 44  1  0  0  0  0
 27 46  1  0  0  0  0
 27 77  1  0  0  0  0
 28 48  1  0  0  0  0
 28 49  1  0  0  0  0
 28 82  1  0  0  0  0
 29 52  1  0  0  0  0
 29 54  1  0  0  0  0
 29 87  1  0  0  0  0
 30 31  1  0  0  0  0
 30 32  1  0  0  0  0
 30 56  1  0  0  0  0
 31 33  1  0  0  0  0
 31 57  1  0  0  0  0
 32 34  1  1  0  0  0
 32 58  1  0  0  0  0
 33 59  1  0  0  0  0
 34 60  1  0  0  0  0
 34 61  1  0  0  0  0
 35 37  1  0  0  0  0
 36 63  1  0  0  0  0
 37 41  2  0  0  0  0
 38 39  1  0  0  0  0
 38 40  1  0  0  0  0
 38 42  1  0  0  0  0
 38 43  1  0  0  0  0
 39 44  1  0  0  0  0
 39 64  1  0  0  0  0
 40 65  1  0  0  0  0
 40 66  1  0  0  0  0
 42 67  1  0  0  0  0
 42 68  1  0  0  0  0
 42 69  1  0  0  0  0
 43 70  1  0  0  0  0
 43 71  1  0  0  0  0
 43 72  1  0  0  0  0
 45 73  1  0  0  0  0
 46 47  1  0  0  0  0
 46 78  1  0  0  0  0
 46 79  1  0  0  0  0
 47 48  1  0  0  0  0
 47 80  1  0  0  0  0
 47 81  1  0  0  0  0
 49 50  1  0  0  0  0
 49 83  1  0  0  0  0
 49 84  1  0  0  0  0
 50 85  1  0  0  0  0
 50 86  1  0  0  0  0
 51 52  1  0  0  0  0
 52 53  2  0  0  0  0
 53 55  1  0  0  0  0
 53 88  1  0  0  0  0
 54 55  2  0  0  0  0
 54 89  1  0  0  0  0
 55 90  1  0  0  0  0
M  CHG  4  11  -1  12  -1  15  -1  18  -1
M  END
> <PUBCHEM_COMPOUND_CID>
74281453

> <PUBCHEM_COMPOUND_CANONICALIZED>
1

> <PUBCHEM_CACTVS_COMPLEXITY>
1470

> <PUBCHEM_CACTVS_HBOND_ACCEPTOR>
22

> <PUBCHEM_CACTVS_HBOND_DONOR>
6

> <PUBCHEM_CACTVS_ROTATABLE_BOND>
20

> <PUBCHEM_CACTVS_SUBSKEYS>
AAADcfB7/gNAAAAAAAAAAAAAAAAAAWLEgAAsAAAAAAAAAFgB/gAAHgQQCCAADhzl1wa/8L/NlxioQTd3dIKCgC03ErAJ2aH4dNiLePrg3fGeRQhvlgL7yab6MQIJAAAAAAAAAAAAAAAAAAAAAAAAAAAAAA==

> <PUBCHEM_IUPAC_OPENEYE_NAME>
[(2R,3S,4R,5R)-5-(6-aminopurin-9-yl)-4-hydroxy-2-[[[[(3R)-3-hydroxy-2,2-dimethyl-4-oxo-4-[[3-oxo-3-[2-(1H-pyrrole-2-carbonylsulfanyl)ethylamino]propyl]amino]butoxy]-oxido-phosphoryl]oxy-oxido-phosphoryl]oxymethyl]tetrahydrofuran-3-yl] phosphate

> <PUBCHEM_IUPAC_CAS_NAME>
[(2R,3S,4R,5R)-5-(6-aminopurin-9-yl)-4-hydroxy-2-[[[[(3R)-3-hydroxy-2,2-dimethyl-4-oxo-4-[[3-oxo-3-[2-[[oxo(1H-pyrrol-2-yl)methyl]thio]ethylamino]propyl]amino]butoxy]-oxidophosphoryl]oxy-oxidophosphoryl]oxymethyl]-3-oxolanyl] phosphate

> <PUBCHEM_IUPAC_NAME_MARKUP>
[(2<I>R</I>,3<I>S</I>,4<I>R</I>,5<I>R</I>)-5-(6-aminopurin-9-yl)-4-hydroxy-2-[[[[(3<I>R</I>)-3-hydroxy-2,2-dimethyl-4-oxo-4-[[3-oxo-3-[2-(1<I>H</I>-pyrrole-2-carbonylsulfanyl)ethylamino]propyl]amino]butoxy]-oxidophosphoryl]oxy-oxidophosphoryl]oxymethyl]oxolan-3-yl] phosphate

> <PUBCHEM_IUPAC_NAME>
[(2R,3S,4R,5R)-5-(6-aminopurin-9-yl)-4-hydroxy-2-[[[[(3R)-3-hydroxy-2,2-dimethyl-4-oxo-4-[[3-oxo-3-[2-(1H-pyrrole-2-carbonylsulfanyl)ethylamino]propyl]amino]butoxy]-oxidophosphoryl]oxy-oxidophosphoryl]oxymethyl]oxolan-3-yl] phosphate

> <PUBCHEM_IUPAC_SYSTEMATIC_NAME>
[(2R,3S,4R,5R)-5-(6-aminopurin-9-yl)-2-[[[[(3R)-2,2-dimethyl-3-oxidanyl-4-oxidanylidene-4-[[3-oxidanylidene-3-[2-(1H-pyrrol-2-ylcarbonylsulfanyl)ethylamino]propyl]amino]butoxy]-oxidanidyl-phosphoryl]oxy-oxidanidyl-phosphoryl]oxymethyl]-4-oxidanyl-oxolan-3-yl] phosphate

> <PUBCHEM_IUPAC_TRADITIONAL_NAME>
[(2R,3S,4R,5R)-5-adenin-9-yl-4-hydroxy-2-[[[[(3R)-3-hydroxy-4-keto-4-[[3-keto-3-[2-(1H-pyrrole-2-carbonylthio)ethylamino]propyl]amino]-2,2-dimethyl-butoxy]-oxido-phosphoryl]oxy-oxido-phosphoryl]oxymethyl]tetrahydrofuran-3-yl] phosphate

> <PUBCHEM_IUPAC_INCHI>
InChI=1S/C26H39N8O17P3S/c1-26(2,20(37)23(38)30-7-5-16(35)29-8-9-55-25(39)14-4-3-6-28-14)11-48-54(45,46)51-53(43,44)47-10-15-19(50-52(40,41)42)18(36)24(49-15)34-13-33-17-21(27)31-12-32-22(17)34/h3-4,6,12-13,15,18-20,24,28,36-37H,5,7-11H2,1-2H3,(H,29,35)(H,30,38)(H,43,44)(H,45,46)(H2,27,31,32)(H2,40,41,42)/p-4/t15-,18-,19-,20+,24-/m1/s1

> <PUBCHEM_IUPAC_INCHIKEY>
AGVZEKVPTJUMGS-DJVIHCHSSA-J

> <PUBCHEM_XLOGP3_AA>
-5.2

> <PUBCHEM_EXACT_MASS>
856.10537384

> <PUBCHEM_MOLECULAR_FORMULA>
C26H35N8O17P3S-4

> <PUBCHEM_MOLECULAR_WEIGHT>
856.6

> <PUBCHEM_OPENEYE_CAN_SMILES>
CC(C)(COP(=O)([O-])OP(=O)([O-])OCC1C(C(C(O1)N2C=NC3=C(N=CN=C32)N)O)OP(=O)([O-])[O-])C(C(=O)NCCC(=O)NCCSC(=O)C4=CC=CN4)O

> <PUBCHEM_OPENEYE_ISO_SMILES>
CC(C)(COP(=O)([O-])OP(=O)([O-])OC[C@@H]1[C@H]([C@H]([C@@H](O1)N2C=NC3=C(N=CN=C32)N)O)OP(=O)([O-])[O-])[C@H](C(=O)NCCC(=O)NCCSC(=O)C4=CC=CN4)O

> <PUBCHEM_CACTVS_TPSA>
416

> <PUBCHEM_MONOISOTOPIC_WEIGHT>
856.10537384

> <PUBCHEM_TOTAL_CHARGE>
-4

> <PUBCHEM_HEAVY_ATOM_COUNT>
55

> <PUBCHEM_ATOM_DEF_STEREO_COUNT>
5

> <PUBCHEM_ATOM_UDEF_STEREO_COUNT>
0

> <PUBCHEM_BOND_DEF_STEREO_COUNT>
0

> <PUBCHEM_BOND_UDEF_STEREO_COUNT>
0

> <PUBCHEM_ISOTOPIC_ATOM_COUNT>
0

> <PUBCHEM_COMPONENT_COUNT>
1

> <PUBCHEM_CACTVS_TAUTO_COUNT>
-1

> <PUBCHEM_COORDINATE_TYPE>
1
5
255

> <PUBCHEM_BONDANNOTATIONS>
39  14  6
33  22  5
22  35  8
22  36  8
23  36  8
23  37  8
24  35  8
24  45  8
25  41  8
25  45  8
29  52  8
29  54  8
32  34  5
35  37  8
37  41  8
52  53  8
53  55  8
54  55  8
30  6  6
31  7  6

$$$$
